Version 4.1
SHEET 1 880 680
WIRE 176 -176 96 -176
WIRE 272 -176 176 -176
WIRE 96 -144 96 -176
WIRE 176 -144 176 -176
WIRE 96 -64 96 -80
WIRE 176 -64 96 -64
WIRE 176 -48 176 -64
WIRE 192 -48 176 -48
WIRE 272 -48 272 -96
WIRE 272 0 272 -48
WIRE -48 16 -144 16
WIRE 32 16 -48 16
WIRE 112 16 32 16
WIRE 240 16 112 16
WIRE -144 32 -144 16
WIRE 336 32 304 32
WIRE 176 48 176 -48
WIRE 240 48 176 48
WIRE -144 128 -144 112
WIRE -48 128 -48 96
WIRE -48 128 -144 128
WIRE 32 128 32 80
WIRE 32 128 -48 128
WIRE 112 144 112 16
WIRE 176 144 112 144
WIRE 336 144 336 32
WIRE 336 144 256 144
FLAG 272 64 0
FLAG 32 128 0
FLAG 176 -176 0
SYMBOL voltage 272 -80 R180
WINDOW 0 24 96 Left 2
WINDOW 3 24 16 Left 2
WINDOW 123 0 0 Left 0
WINDOW 39 0 0 Left 0
SYMATTR InstName V1
SYMATTR Value 5V
SYMBOL res 288 -64 R90
WINDOW 0 0 56 VBottom 2
WINDOW 3 32 56 VTop 2
SYMATTR InstName R1
SYMATTR Value 13.7k
SYMBOL res 160 -160 R0
SYMATTR InstName R2
SYMATTR Value 280
SYMBOL cap 80 -144 R0
SYMATTR InstName C1
SYMATTR Value 1µF
SYMBOL current -48 16 R0
WINDOW 123 0 0 Left 0
WINDOW 39 0 0 Left 0
SYMATTR InstName I1
SYMATTR Value PULSE(6nA 0 0 0 0 .001 .002)
SYMBOL cap 16 16 R0
SYMATTR InstName C2
SYMATTR Value 4pF
SYMBOL res 272 128 R90
WINDOW 0 0 56 VBottom 2
WINDOW 3 32 56 VTop 2
SYMATTR InstName R3
SYMATTR Value 2Meg
SYMBOL lm358 272 -32 R0
SYMATTR InstName U1
SYMBOL res -160 16 R0
SYMATTR InstName R4
SYMATTR Value 3G
TEXT -376 -328 Left 2 !.lib OPA2333.lib
TEXT -376 -240 Left 2 !.tran 20ms
