Version 4.1
SHEET 1 880 680
WIRE 192 -112 112 -112
WIRE 320 -112 272 -112
WIRE 112 32 112 -112
WIRE 112 32 48 32
WIRE 160 32 112 32
WIRE 48 48 48 32
WIRE 112 64 112 32
WIRE 224 80 224 48
WIRE 160 96 160 32
WIRE 192 96 160 96
WIRE 320 112 320 -112
WIRE 320 112 256 112
WIRE 112 128 48 128
WIRE 192 128 112 128
WIRE 112 192 112 128
WIRE 224 192 224 144
WIRE 224 192 112 192
WIRE 224 240 224 192
FLAG 224 240 0
FLAG 224 -32 0
SYMBOL OpAmps\\opamp2 224 48 R0
SYMATTR InstName U1
SYMATTR Value OPA2333
SYMBOL diode 128 128 R180
WINDOW 0 -19 53 Left 2
WINDOW 3 -48 13 Left 2
SYMATTR InstName D1
SYMATTR Value OP999
SYMBOL res 288 -128 R90
WINDOW 0 0 56 VBottom 2
WINDOW 3 32 56 VTop 2
SYMATTR InstName R1
SYMATTR Value 2Meg
SYMBOL voltage 224 64 R180
WINDOW 0 -42 88 Left 2
WINDOW 3 -12 59 Left 2
WINDOW 123 0 0 Left 0
WINDOW 39 0 0 Left 0
SYMATTR InstName V1
SYMATTR Value 5V
SYMBOL current 48 128 R180
WINDOW 0 24 80 Left 2
WINDOW 3 24 0 Left 2
WINDOW 123 0 0 Left 0
WINDOW 39 0 0 Left 0
SYMATTR InstName I1
SYMATTR Value PULSE(6nA 0 0 0 0 .001 .00213)
TEXT -376 -200 Left 2 !.lib OPA2333.lib
TEXT -376 -352 Left 2 !.MODEL OP999 D (IS=1e-12 RS=10 CJO=4p TT=5ns)
TEXT -376 264 Left 2 !.tran 1ms
