Version 4.1
SHEET 1 880 680
FLAG -48 320 0
